[TITLE]
;;Project Title/Notes

[OPTIONS]
;;Option             Value
FLOW_UNITS           CMS
INFILTRATION         HORTON
FLOW_ROUTING         DYNWAVE
LINK_OFFSETS         DEPTH
MIN_SLOPE            0
ALLOW_PONDING        NO
SKIP_STEADY_STATE    NO

START_DATE           08/05/2016
START_TIME           00:00:00
REPORT_START_DATE    08/07/2016
REPORT_START_TIME    00:00:00
END_DATE             08/11/2016
END_TIME             00:00:00
SWEEP_START          01/01
SWEEP_END            12/31
DRY_DAYS             0
REPORT_STEP          00:15:00
WET_STEP             00:05:00
DRY_STEP             01:00:00
ROUTING_STEP         0:00:30 

INERTIAL_DAMPING     NONE
NORMAL_FLOW_LIMITED  BOTH
FORCE_MAIN_EQUATION  H-W
VARIABLE_STEP        0.75
LENGTHENING_STEP     0
MIN_SURFAREA         0.0000001
MAX_TRIALS           8
HEAD_TOLERANCE       0.0001
SYS_FLOW_TOL         5
LAT_FLOW_TOL         5
MINIMUM_STEP         0.5
THREADS              8

[EVAPORATION]
;;Data Source    Parameters
;;-------------- ----------------
CONSTANT         0.0
DRY_ONLY         NO

[JUNCTIONS]
;;Name           Elevation  MaxDepth   InitDepth  SurDepth   Aponded   
;;-------------- ---------- ---------- ---------- ---------- ----------
N_HWY183         122.22     0          0          0          0         
N_92200          122.19     0          0          0          0         
N_92100          122.16     0          0          0          0         
N_92000          122.13     0          0          0          0         
N_91900          122.10     0          0          0          0         
N_91800          122.07     0          0          0          0         
N_91700          122.04     0          0          0          0         
N_D1a            122.01     0          0          0          0         
N_91500          121.98     0          0          0          0         
N_91400          121.95     0          0          0          0         
N_91300          121.92     0          0          0          0         
N_91200          121.89     0          0          0          0         
N_91100          121.86     0          0          0          0         
N_91000          121.83     0          0          0          0         
N_90900          121.80     0          0          0          0         
N_90800          121.77     0          0          0          0         
N_90700          121.74     0          0          0          0         
N_90600          121.71     0          0          0          0         
N_90500          121.68     0          0          0          0         
N_90400          121.65     0          0          0          0         
N_90300          121.62     0          0          0          0         
N_90200          121.59     0          0          0          0         
N_D2             121.56     0          0          0          0         
N_90000          121.53     0          0          0          0         
N_89900          121.50     0          0          0          0         
N_89800          121.47     0          0          0          0         
N_89700          121.44     0          0          0          0         
N_U2410720192    121.41     0          0          0          0         
N_89500          121.38     0          0          0          0         
N_WWTP1          121.35     0          0          0          0         
N_89300          121.32     0          0          0          0         
N_89200          121.29     0          0          0          0         
N_89100          121.26     0          0          0          0         
N_89000          121.23     0          0          0          0         
N_88900          121.20     0          0          0          0         
N_88800          121.17     0          0          0          0         
N_88700          121.14     0          0          0          0         
N_88600          121.11     0          0          0          0         
N_88500          121.08     0          0          0          0         
N_88400          121.05     0          0          0          0         
N_88300          121.02     0          0          0          0         
N_88200          120.99     0          0          0          0         
N_88100          120.96     0          0          0          0         
N_88000          120.93     0          0          0          0         
N_87900          120.90     0          0          0          0         
N_87800          120.87     0          0          0          0         
N_WALNUTCK       120.84     0          0          0          0         
N_87600          120.81     0          0          0          0         
N_87500          120.78     0          0          0          0         
N_87400          120.75     0          0          0          0         
N_87300          120.72     0          0          0          0         
N_U2410720194    120.69     0          0          0          0         
N_87100          120.66     0          0          0          0         
N_87000          120.63     0          0          0          0         
N_86900          120.60     0          0          0          0         
N_86800          120.57     0          0          0          0         
N_86700          120.54     0          0          0          0         
N_86600          120.51     0          0          0          0         
N_86500          120.48     0          0          0          0         
N_86400          120.45     0          0          0          0         
N_86300          120.42     0          0          0          0         
N_86200          120.39     0          0          0          0         
N_86100          120.36     0          0          0          0         
N_86000          120.33     0          0          0          0         
N_85900          120.30     0          0          0          0         
N_85800          120.27     0          0          0          0         
N_85700          120.24     0          0          0          0         
N_85600          120.21     0          0          0          0         
N_D3a            120.18     0          0          0          0         
N_85400          120.15     0          0          0          0         
N_85300          120.12     0          0          0          0         
N_85200          120.09     0          0          0          0         
N_85100          120.06     0          0          0          0         
N_85000          120.03     0          0          0          0         
N_84900          120.00     0          0          0          0         
N_84800          119.97     0          0          0          0         
N_84700          119.94     0          0          0          0         
N_84600          119.91     0          0          0          0         
N_84500          119.88     0          0          0          0         
N_84400          119.85     0          0          0          0         
N_84300          119.82     0          0          0          0         
N_84200          119.79     0          0          0          0         
N_84100          119.76     0          0          0          0         
N_84000          119.73     0          0          0          0         
N_83900          119.70     0          0          0          0         
N_83800          119.67     0          0          0          0         
N_83700          119.64     0          0          0          0         
N_83600          119.61     0          0          0          0         
N_83500          119.58     0          0          0          0         
N_83400          119.55     0          0          0          0         
N_83300          119.52     0          0          0          0         
N_83200          119.49     0          0          0          0         
N_83100          119.46     0          0          0          0         
N_83000          119.43     0          0          0          0         
N_82900          119.40     0          0          0          0         
N_82800          119.37     0          0          0          0         
N_82700          119.34     0          0          0          0         
N_82600          119.31     0          0          0          0         
N_82500          119.28     0          0          0          0         
N_82400          119.25     0          0          0          0         
N_82300          119.22     0          0          0          0         
N_82200          119.19     0          0          0          0         
N_82100          119.16     0          0          0          0         
N_82000          119.13     0          0          0          0         
N_81900          119.10     0          0          0          0         
N_81800          119.07     0          0          0          0         
N_81700          119.04     0          0          0          0         
N_81600          119.01     0          0          0          0         
N_81500          118.98     0          0          0          0         
N_D1b            118.95     0          0          0          0         
N_TROLLHGZ       118.92     0          0          0          0         
N_81200          118.89     0          0          0          0         
N_81100          118.86     0          0          0          0         
N_81000          118.83     0          0          0          0         
N_80900          118.80     0          0          0          0         
N_80800          118.77     0          0          0          0         
N_80700          118.74     0          0          0          0         
N_80600          118.71     0          0          0          0         
N_80500          118.68     0          0          0          0         
N_80400          118.65     0          0          0          0         
N_80300          118.62     0          0          0          0         
N_D3b            118.59     0          0          0          0         
N_80100          118.56     0          0          0          0         
N_80000          118.53     0          0          0          0         
N_79900          118.50     0          0          0          0         
N_79800          118.47     0          0          0          0         
N_D4             118.44     0          0          0          0         
N_79600          118.41     0          0          0          0         
N_79500          118.38     0          0          0          0         
N_79400          118.35     0          0          0          0         
N_79300          118.32     0          0          0          0         
N_79200          118.29     0          0          0          0         
N_79100          118.26     0          0          0          0         
N_79000          118.23     0          0          0          0         
N_78900          118.20     0          0          0          0         
N_78800          118.17     0          0          0          0         
N_78700          118.14     0          0          0          0         
N_78600          118.11     0          0          0          0         
N_78500          118.08     0          0          0          0         
N_78400          118.05     0          0          0          0         
N_78300          118.02     0          0          0          0         
N_78200          117.99     0          0          0          0         
N_78100          117.96     0          0          0          0         
N_78000          117.93     0          0          0          0         
N_77900          117.90     0          0          0          0         
N_77800          117.87     0          0          0          0         
N_77700          117.84     0          0          0          0         
N_77600          117.81     0          0          0          0         
N_77500          117.78     0          0          0          0         
N_77400          117.75     0          0          0          0         
N_77300          117.72     0          0          0          0         
N_77200          117.69     0          0          0          0         
N_77100          117.66     0          0          0          0         
N_77000          117.63     0          0          0          0         
N_76900          117.60     0          0          0          0         
N_76800          117.57     0          0          0          0         
N_76700          117.54     0          0          0          0         
N_76600          117.51     0          0          0          0         
N_76500          117.48     0          0          0          0         
N_76400          117.45     0          0          0          0         
N_76300          117.42     0          0          0          0         
N_76200          117.39     0          0          0          0         
N_76100          117.36     0          0          0          0         
N_76000          117.33     0          0          0          0         
N_75900          117.30     0          0          0          0         
N_75800          117.27     0          0          0          0         
N_75700          117.24     0          0          0          0         
N_75600          117.21     0          0          0          0         
N_75500          117.18     0          0          0          0         
N_75400          117.15     0          0          0          0         
N_75300          117.12     0          0          0          0         
N_75200          117.09     0          0          0          0         
N_75100          117.06     0          0          0          0         
N_75000          117.03     0          0          0          0         
N_74900          117.00     0          0          0          0         
N_74800          116.97     0          0          0          0         
N_74700          116.94     0          0          0          0         
N_74600          116.91     0          0          0          0         
N_74500          116.88     0          0          0          0         
N_74400          116.85     0          0          0          0         
N_74300          116.82     0          0          0          0         
N_74200          116.79     0          0          0          0         
N_74100          116.76     0          0          0          0         
N_74000          116.73     0          0          0          0         
N_73900          116.70     0          0          0          0         
N_73800          116.67     0          0          0          0         
N_73700          116.64     0          0          0          0         
N_73600          116.61     0          0          0          0         
N_73500          116.58     0          0          0          0         
N_73400          116.55     0          0          0          0         
N_73300          116.52     0          0          0          0         
N_73200          116.49     0          0          0          0         
N_73100          116.46     0          0          0          0         
N_73000          116.43     0          0          0          0         
N_72900          116.40     0          0          0          0         
N_72800          116.37     0          0          0          0         
N_72700          116.34     0          0          0          0         
N_72600          116.31     0          0          0          0         
N_72500          116.28     0          0          0          0         
N_72400          116.25     0          0          0          0         
N_72300          116.22     0          0          0          0         
N_72200          116.19     0          0          0          0         
N_72100          116.16     0          0          0          0         
N_72000          116.13     0          0          0          0         
N_71900          116.10     0          0          0          0         
N_71800          116.07     0          0          0          0         
N_71700          116.04     0          0          0          0         
N_71600          116.01     0          0          0          0         
N_71500          115.98     0          0          0          0         
N_71400          115.95     0          0          0          0         
N_71300          115.92     0          0          0          0         
N_71200          115.89     0          0          0          0         
N_71100          115.86     0          0          0          0         
N_71000          115.83     0          0          0          0         
N_70900          115.80     0          0          0          0         
N_70800          115.77     0          0          0          0         
N_70700          115.74     0          0          0          0         
N_70600          115.71     0          0          0          0         
N_70500          115.68     0          0          0          0         
N_70400          115.65     0          0          0          0         
N_70300          115.62     0          0          0          0         
N_70200          115.59     0          0          0          0         
N_70100          115.56     0          0          0          0         
N_70000          115.53     0          0          0          0         
N_69900          115.50     0          0          0          0         
N_TROLL416289    115.47     0          0          0          0         
N_69700          115.44     0          0          0          0         
N_69600          115.41     0          0          0          0         
N_69500          115.38     0          0          0          0         
N_WWTP2          115.35     0          0          0          0         
N_69300          115.32     0          0          0          0         
N_69200          115.29     0          0          0          0         
N_69100          115.26     0          0          0          0         
N_69000          115.23     0          0          0          0         
N_68900          115.20     0          0          0          0         
N_ONIONCK        115.17     0          0          0          0         
N_68700          115.14     0          0          0          0         
N_68600          115.11     0          0          0          0         
N_68500          115.08     0          0          0          0         
N_68400          115.05     0          0          0          0         
N_68300          115.02     0          0          0          0         
N_68200          114.99     0          0          0          0         
N_68100          114.96     0          0          0          0         
N_68000          114.93     0          0          0          0         
N_67900          114.90     0          0          0          0         
N_67800          114.87     0          0          0          0         
N_67700          114.84     0          0          0          0         
N_67600          114.81     0          0          0          0         
N_67500          114.78     0          0          0          0         
N_67400          114.75     0          0          0          0         
N_67300          114.72     0          0          0          0         
N_67200          114.69     0          0          0          0         
N_67100          114.66     0          0          0          0         
N_67000          114.63     0          0          0          0         
N_66900          114.60     0          0          0          0         
N_66800          114.57     0          0          0          0         
N_66700          114.54     0          0          0          0         
N_66600          114.51     0          0          0          0         
N_66500          114.48     0          0          0          0         
N_66400          114.45     0          0          0          0         
N_66300          114.42     0          0          0          0         
N_66200          114.39     0          0          0          0         
N_66100          114.36     0          0          0          0         
N_66000          114.33     0          0          0          0         
N_65900          114.30     0          0          0          0         
N_65800          114.27     0          0          0          0         
N_65700          114.24     0          0          0          0         
N_65600          114.21     0          0          0          0         
N_65500          114.18     0          0          0          0         
N_65400          114.15     0          0          0          0         
N_65300          114.12     0          0          0          0         
N_65200          114.09     0          0          0          0         
N_65100          114.06     0          0          0          0         
N_65000          114.03     0          0          0          0         
N_64900          114.00     0          0          0          0         
N_64800          113.97     0          0          0          0         
N_64700          113.94     0          0          0          0         
N_64600          113.91     0          0          0          0         
N_64500          113.88     0          0          0          0         
N_64400          113.85     0          0          0          0         
N_64300          113.82     0          0          0          0         
N_64200          113.79     0          0          0          0         
N_64100          113.76     0          0          0          0         
N_64000          113.73     0          0          0          0         
N_63900          113.70     0          0          0          0         
N_63800          113.67     0          0          0          0         
N_63700          113.64     0          0          0          0         
N_63600          113.61     0          0          0          0         
N_63500          113.58     0          0          0          0         
N_63400          113.55     0          0          0          0         
N_63300          113.52     0          0          0          0         
N_63200          113.49     0          0          0          0         
N_63100          113.46     0          0          0          0         
N_63000          113.43     0          0          0          0         
N_62900          113.40     0          0          0          0         
N_62800          113.37     0          0          0          0         
N_62700          113.34     0          0          0          0         
N_62600          113.31     0          0          0          0         
N_62500          113.28     0          0          0          0         
N_62400          113.25     0          0          0          0         
N_GILLELANDCK    113.22     0          0          0          0         
N_62200          113.19     0          0          0          0         
N_62100          113.16     0          0          0          0         
N_62000          113.13     0          0          0          0         
N_61900          113.10     0          0          0          0         
N_61800          113.07     0          0          0          0         
N_61700          113.04     0          0          0          0         
N_61600          113.01     0          0          0          0         
N_61500          112.98     0          0          0          0         
N_61400          112.95     0          0          0          0         
N_61300          112.92     0          0          0          0         
N_61200          112.89     0          0          0          0         
N_61100          112.86     0          0          0          0         
N_61000          112.83     0          0          0          0         
N_60900          112.80     0          0          0          0         
N_60800          112.77     0          0          0          0         
N_60700          112.74     0          0          0          0         
N_60600          112.71     0          0          0          0         
N_60500          112.68     0          0          0          0         
N_60400          112.65     0          0          0          0         
N_60300          112.62     0          0          0          0         
N_60200          112.59     0          0          0          0         
N_60100          112.56     0          0          0          0         
N_60000          112.53     0          0          0          0         
N_59900          112.50     0          0          0          0         
N_59800          112.47     0          0          0          0         
N_59700          112.44     0          0          0          0         
N_59600          112.41     0          0          0          0         
N_59500          112.38     0          0          0          0         
N_59400          112.35     0          0          0          0         
N_59300          112.32     0          0          0          0         
N_59200          112.29     0          0          0          0         
N_59100          112.26     0          0          0          0         
N_59000          112.23     0          0          0          0         
N_58900          112.20     0          0          0          0         
N_TROLLWB        112.17     0          0          0          0         
N_58700          112.14     0          0          0          0         
N_58600          112.11     0          0          0          0         
N_58500          112.08     0          0          0          0         
N_58400          112.05     0          0          0          0         
N_58300          112.02     0          0          0          0         
N_WBLCRA         111.99     0          0          0          0         
N_58100          111.96     0          0          0          0         
N_58000          111.93     0          0          0          0         
N_57900          111.90     0          0          0          0         
N_57800          111.87     0          0          0          0         
N_57700          111.84     0          0          0          0         
N_57600          111.81     0          0          0          0         
N_57500          111.78     0          0          0          0         
N_57400          111.75     0          0          0          0         
N_57300          111.72     0          0          0          0         
N_57200          111.69     0          0          0          0         
N_57100          111.66     0          0          0          0         
N_57000          111.63     0          0          0          0         
N_56900          111.60     0          0          0          0         
N_56800          111.57     0          0          0          0         
N_56700          111.54     0          0          0          0         
N_56600          111.51     0          0          0          0         
N_56500          111.48     0          0          0          0         
N_56400          111.45     0          0          0          0         
N_56300          111.42     0          0          0          0         
N_56200          111.39     0          0          0          0         
N_56100          111.36     0          0          0          0         
N_56000          111.33     0          0          0          0         
N_55900          111.30     0          0          0          0         
N_55800          111.27     0          0          0          0         
N_55700          111.24     0          0          0          0         
N_55600          111.21     0          0          0          0         
N_55500          111.18     0          0          0          0         
N_55400          111.15     0          0          0          0         
N_55300          111.12     0          0          0          0         
N_55200          111.09     0          0          0          0         
N_55100          111.06     0          0          0          0         
N_55000          111.03     0          0          0          0         
N_54900          111.00     0          0          0          0         
N_54800          110.97     0          0          0          0         
N_54700          110.94     0          0          0          0         
N_54600          110.91     0          0          0          0         
N_54500          110.88     0          0          0          0         
N_54400          110.85     0          0          0          0         
N_54300          110.82     0          0          0          0         
N_54200          110.79     0          0          0          0         
N_54100          110.76     0          0          0          0         
N_54000          110.73     0          0          0          0         
N_53900          110.70     0          0          0          0         
N_53800          110.67     0          0          0          0         
N_53700          110.64     0          0          0          0         
N_53600          110.61     0          0          0          0         
N_53500          110.58     0          0          0          0         
N_53400          110.55     0          0          0          0         
N_53300          110.52     0          0          0          0         
N_53200          110.49     0          0          0          0         
N_53100          110.46     0          0          0          0         
N_53000          110.43     0          0          0          0         
N_52900          110.40     0          0          0          0         
N_52800          110.37     0          0          0          0         
N_52700          110.34     0          0          0          0         
N_52600          110.31     0          0          0          0         
N_52500          110.28     0          0          0          0         