[TITLE]
;;Project Title/Notes

[OPTIONS]
;;Option             Value
FLOW_UNITS           CMS
INFILTRATION         HORTON
FLOW_ROUTING         DYNWAVE
LINK_OFFSETS         DEPTH
MIN_SLOPE            0
ALLOW_PONDING        NO
SKIP_STEADY_STATE    NO

START_DATE           08/01/2016
START_TIME           00:00:00
REPORT_START_DATE    08/02/2016
REPORT_START_TIME    00:00:00
END_DATE             09/30/2016
END_TIME             00:00:00
SWEEP_START          01/01
SWEEP_END            12/31
DRY_DAYS             0
REPORT_STEP          00:15:00
WET_STEP             00:05:00
DRY_STEP             01:00:00
ROUTING_STEP         0:00:30 
RULE_STEP            00:00:00

INERTIAL_DAMPING     NONE
NORMAL_FLOW_LIMITED  BOTH
FORCE_MAIN_EQUATION  H-W
VARIABLE_STEP        0.75
LENGTHENING_STEP     0
MIN_SURFAREA         0.0000001
MAX_TRIALS           8
HEAD_TOLERANCE       0.0001
SYS_FLOW_TOL         5
LAT_FLOW_TOL         5
MINIMUM_STEP         0.5
THREADS              8

[EVAPORATION]
;;Data Source    Parameters
;;-------------- ----------------
CONSTANT         0.0
DRY_ONLY         NO

[JUNCTIONS]
;;Name           Elevation  MaxDepth   InitDepth  SurDepth   Aponded   
;;-------------- ---------- ---------- ---------- ---------- ----------
N_100            94.55999878 0          0          0          0         
N_200            94.58999878 0          0          0          0         
N_300            94.61999878 0          0          0          0         
N_400            94.64999878 0          0          0          0         
N_500            94.67999878 0          0          0          0         
N_600            94.70999878 0          0          0          0         
N_700            94.73999878 0          0          0          0         
N_800            94.76999878 0          0          0          0         
N_900            94.79999878 0          0          0          0         
N_1000           94.82999878 0          0          0          0         
N_1100           94.85999878 0          0          0          0         
N_1200           94.88999878 0          0          0          0         
N_1300           94.91999878 0          0          0          0         
N_1400           94.94999878 0          0          0          0         
N_1500           94.97999878 0          0          0          0         
N_1600           95.00999878 0          0          0          0         
N_1700           95.03999878 0          0          0          0         
N_1800           95.06999878 0          0          0          0         
N_1900           95.09999878 0          0          0          0         
N_2000           95.12999878 0          0          0          0         
N_2100           95.15999878 0          0          0          0         
N_2200           95.18999878 0          0          0          0         
N_2300           95.21999878 0          0          0          0         
N_2400           95.24999878 0          0          0          0         
N_2500           95.27999878 0          0          0          0         
N_2600           95.30999878 0          0          0          0         
N_2700           95.33999878 0          0          0          0         
N_2800           95.36999878 0          0          0          0         
N_BASTROP        95.39999878 0          0          0          0         
N_3000           95.42999878 0          0          0          0         
N_3100           95.45999878 0          0          0          0         
N_3200           95.48999878 0          0          0          0         
N_3300           95.51999878 0          0          0          0         
N_3400           95.54999878 0          0          0          0         
N_3500           95.57999878 0          0          0          0         
N_3600           95.60999878 0          0          0          0         
N_3700           95.63999878 0          0          0          0         
N_3800           95.66999878 0          0          0          0         
N_3900           95.69999878 0          0          0          0         
N_4000           95.72999878 0          0          0          0         
N_4100           95.75999878 0          0          0          0         
N_4200           95.78999878 0          0          0          0         
N_4300           95.81999878 0          0          0          0         
N_4400           95.84999878 0          0          0          0         
N_4500           95.87999878 0          0          0          0         
N_4600           95.90999878 0          0          0          0         
N_4700           95.93999878 0          0          0          0         
N_4800           95.96999878 0          0          0          0         
N_4900           95.99999878 0          0          0          0         
N_5000           96.02999878 0          0          0          0         
N_5100           96.05999878 0          0          0          0         
N_5200           96.08999878 0          0          0          0         
N_5300           96.11999878 0          0          0          0         
N_5400           96.14999878 0          0          0          0         
N_5500           96.17999878 0          0          0          0         
N_5600           96.20999878 0          0          0          0         
N_5700           96.23999878 0          0          0          0         
N_5800           96.26999878 0          0          0          0         
N_5900           96.29999878 0          0          0          0         
N_6000           96.32999878 0          0          0          0         
N_6100           96.35999878 0          0          0          0         
N_6200           96.38999878 0          0          0          0         
N_6300           96.41999878 0          0          0          0         
N_6400           96.44999878 0          0          0          0         
N_6500           96.47999878 0          0          0          0         
N_6600           96.50999878 0          0          0          0         
N_6700           96.53999878 0          0          0          0         
N_6800           96.56999878 0          0          0          0         
N_6900           96.59999878 0          0          0          0         
N_7000           96.62999878 0          0          0          0         
N_7100           96.65999878 0          0          0          0         
N_7200           96.68999878 0          0          0          0         
N_7300           96.71999878 0          0          0          0         
N_7400           96.74999878 0          0          0          0         
N_7500           96.77999878 0          0          0          0         
N_7600           96.80999878 0          0          0          0         
N_7700           96.83999878 0          0          0          0         
N_7800           96.86999878 0          0          0          0         
N_7900           96.89999878 0          0          0          0         
N_8000           96.92999878 0          0          0          0         
N_8100           96.95999878 0          0          0          0         
N_8200           96.98999878 0          0          0          0         
N_8300           97.01999878 0          0          0          0         
N_8400           97.04999878 0          0          0          0         
N_8500           97.07999878 0          0          0          0         
N_8600           97.10999878 0          0          0          0         
N_8700           97.13999878 0          0          0          0         
N_8800           97.16999878 0          0          0          0         
N_8900           97.19999878 0          0          0          0         
N_9000           97.22999878 0          0          0          0         
N_9100           97.25999878 0          0          0          0         
N_9200           97.28999878 0          0          0          0         
N_9300           97.31999878 0          0          0          0         
N_9400           97.34999878 0          0          0          0         
N_9500           97.37999878 0          0          0          0         
N_9600           97.40999878 0          0          0          0         
N_9700           97.43999878 0          0          0          0         
N_9800           97.46999878 0          0          0          0         
N_9900           97.49999878 0          0          0          0         
N_10000          97.52999878 0          0          0          0         
N_10100          97.55999878 0          0          0          0         
N_10200          97.58999878 0          0          0          0         
N_10300          97.61999878 0          0          0          0         
N_10400          97.64999878 0          0          0          0         
N_10500          97.67999878 0          0          0          0         
N_10600          97.70999878 0          0          0          0         
N_10700          97.73999878 0          0          0          0         
N_10800          97.76999878 0          0          0          0         
N_10900          97.79999878 0          0          0          0         
N_11000          97.82999878 0          0          0          0         
N_11100          97.85999878 0          0          0          0         
N_11200          97.88999878 0          0          0          0         
N_11300          97.91999878 0          0          0          0         
N_11400          97.94999878 0          0          0          0         
N_11500          97.97999878 0          0          0          0         
N_11600          98.00999878 0          0          0          0         
N_11700          98.03999878 0          0          0          0         
N_11800          98.06999878 0          0          0          0         
N_11900          98.09999878 0          0          0          0         
N_12000          98.12999878 0          0          0          0         
N_12100          98.15999878 0          0          0          0         
N_12200          98.18999878 0          0          0          0         
N_12300          98.21999878 0          0          0          0         
N_12400          98.24999878 0          0          0          0         
N_12500          98.27999878 0          0          0          0         
N_12600          98.30999878 0          0          0          0         
N_12700          98.33999878 0          0          0          0         
N_12800          98.36999878 0          0          0          0         
N_12900          98.39999878 0          0          0          0         
N_13000          98.42999878 0          0          0          0         
N_13100          98.45999878 0          0          0          0         
N_13200          98.48999878 0          0          0          0         
N_13300          98.51999878 0          0          0          0         
N_13400          98.54999878 0          0          0          0         
N_13500          98.57999878 0          0          0          0         
N_13600          98.60999878 0          0          0          0         
N_13700          98.63999878 0          0          0          0         
N_13800          98.66999878 0          0          0          0         
N_13900          98.69999878 0          0          0          0         
N_14000          98.72999878 0          0          0          0         
N_14100          98.75999878 0          0          0          0         
N_14200          98.78999878 0          0          0          0         
N_14300          98.81999878 0          0          0          0         
N_14400          98.84999878 0          0          0          0         
N_14500          98.87999878 0          0          0          0         
N_14600          98.90999878 0          0          0          0         
N_14700          98.93999878 0          0          0          0         
N_14800          98.96999878 0          0          0          0         
N_14900          98.99999878 0          0          0          0         
N_15000          99.02999878 0          0          0          0         
N_15100          99.05999878 0          0          0          0         
N_15200          99.08999878 0          0          0          0         
N_15300          99.11999878 0          0          0          0         
N_15400          99.14999878 0          0          0          0         
N_15500          99.17999878 0          0          0          0         
N_15600          99.20999878 0          0          0          0         
N_15700          99.23999878 0          0          0          0         
N_15800          99.26999878 0          0          0          0         
N_15900          99.29999878 0          0          0          0         
N_16000          99.32999878 0          0          0          0         
N_16100          99.35999878 0          0          0          0         
N_16200          99.38999878 0          0          0          0         
N_16300          99.41999878 0          0          0          0         
N_16400          99.44999878 0          0          0          0         
N_16500          99.47999878 0          0          0          0         
N_16600          99.50999878 0          0          0          0         
N_16700          99.53999878 0          0          0          0         
N_16800          99.56999878 0          0          0          0         
N_16900          99.59999878 0          0          0          0         
N_17000          99.62999878 0          0          0          0         
N_17100          99.65999878 0          0          0          0         
N_17200          99.68999878 0          0          0          0         
N_17300          99.71999878 0          0          0          0         
N_17400          99.74999878 0          0          0          0         
N_17500          99.77999878 0          0          0          0         
N_17600          99.80999878 0          0          0          0         
N_17700          99.83999878 0          0          0          0         
N_17800          99.86999878 0          0          0          0         
N_17900          99.89999878 0          0          0          0         
N_18000          99.92999878 0          0          0          0         
N_18100          99.95999878 0          0          0          0         
N_18200          99.98999878 0          0          0          0         
N_18300          100.0199988 0          0          0          0         
N_18400          100.0499988 0          0          0          0         
N_18500          100.0799988 0          0          0          0         
N_18600          100.1099988 0          0          0          0         
N_18700          100.1399988 0          0          0          0         
N_18800          100.1699988 0          0          0          0         
N_18900          100.1999988 0          0          0          0         
N_19000          100.2299988 0          0          0          0         
N_19100          100.2599988 0          0          0          0         
N_19200          100.2899988 0          0          0          0         
N_19300          100.3199988 0          0          0          0         
N_19400          100.3499988 0          0          0          0         
N_19500          100.3799988 0          0          0          0         
N_19600          100.4099988 0          0          0          0         
N_19700          100.4399988 0          0          0          0         
N_19800          100.4699988 0          0          0          0         
N_19900          100.4999988 0          0          0          0         
N_20000          100.5299988 0          0          0          0         
N_20100          100.5599988 0          0          0          0         
N_20200          100.5899988 0          0          0          0         
N_20300          100.6199988 0          0          0          0         
N_20400          100.6499988 0          0          0          0         
N_20500          100.6799988 0          0          0          0         
N_20600          100.7099988 0          0          0          0         
N_20700          100.7399988 0          0          0          0         
N_20800          100.7699988 0          0          0          0         
N_20900          100.7999988 0          0          0          0         
N_21000          100.8299988 0          0          0          0         
N_21100          100.8599988 0          0          0          0         
N_21200          100.8899988 0          0          0          0         
N_21300          100.9199988 0          0          0          0         
N_21400          100.9499988 0          0          0          0         
N_21500          100.9799988 0          0          0          0         
N_21600          101.0099988 0          0          0          0         
N_21700          101.0399988 0          0          0          0         
N_21800          101.0699988 0          0          0          0         
N_21900          101.0999988 0          0          0          0         
N_22000          101.1299988 0          0          0          0         
N_22100          101.1599988 0          0          0          0         
N_22200          101.1899988 0          0          0          0         
N_22300          101.2199988 0          0          0          0         
N_22400          101.2499988 0          0          0          0         
N_22500          101.2799988 0          0          0          0         
N_22600          101.3099988 0          0          0          0         
N_22700          101.3399988 0          0          0          0         
N_22800          101.3699988 0          0          0          0         
N_22900          101.3999988 0          0          0          0         
N_23000          101.4299988 0          0          0          0         
N_23100          101.4599988 0          0          0          0         
N_23200          101.4899988 0          0          0          0         
N_23300          101.5199988 0          0          0          0         
N_23400          101.5499988 0          0          0          0         
N_23500          101.5799988 0          0          0          0         
N_23600          101.6099988 0          0          0          0         
N_23700          101.6399988 0          0          0          0         
N_23800          101.6699988 0          0          0          0         
N_23900          101.6999988 0          0          0          0         
N_24000          101.7299988 0          0          0          0         
N_24100          101.7599988 0          0          0          0         
N_24200          101.7899988 0          0          0          0         
N_24300          101.8199988 0          0          0          0         
N_24400          101.8499988 0          0          0          0         
N_24500          101.8799988 0          0          0          0         
N_24600          101.9099988 0          0          0          0         
N_24700          101.9399988 0          0          0          0         
N_24800          101.9699988 0          0          0          0         
N_24900          101.9999988 0          0          0          0         
N_25000          102.0299988 0          0          0          0         
N_25100          102.0599988 0          0          0          0         
N_25200          102.0899988 0          0          0          0         
N_25300          102.1199988 0          0          0          0         
N_25400          102.1499988 0          0          0          0         
N_25500          102.1799988 0          0          0          0         
N_25600          102.2099988 0          0          0          0         
N_25700          102.2399988 0          0          0          0         
N_25800          102.2699988 0          0          0          0         
N_25900          102.2999988 0          0          0          0         
N_26000          102.3299988 0          0          0          0         
N_26100          102.3599988 0          0          0          0         
N_26200          102.3899988 0          0          0          0         
N_26300          102.4199988 0          0          0          0         
N_26400          102.4499988 0          0          0          0         
N_26500          102.4799988 0          0          0          0         
N_26600          102.5099988 0          0          0          0         
N_26700          102.5399988 0          0          0          0         
N_26800          102.5699988 0          0          0          0         
N_26900          102.5999988 0          0          0          0         
N_27000          102.6299988 0          0          0          0         
N_27100          102.6599988 0          0          0          0         
N_UTLEY          102.6899988 0          0          0          0         
N_27300          102.7199988 0          0          0          0         
N_27400          102.7499988 0          0          0          0         
N_27500          102.7799988 0          0          0          0         
N_27600          102.8099988 0          0          0          0         
N_27700          102.8399988 0          0          0          0         
N_27800          102.8699988 0          0          0          0         
N_27900          102.8999988 0          0          0          0         
N_28000          102.9299988 0          0          0          0         
N_28100          102.9599988 0          0          0          0         
N_28200          102.9899988 0          0          0          0         
N_28300          103.0199988 0          0          0          0         
N_28400          103.0499988 0          0          0          0         
N_28500          103.0799988 0          0          0          0         
N_28600          103.1099988 0          0          0          0         
N_28700          103.1399988 0          0          0          0         
N_28800          103.1699988 0          0          0          0         
N_28900          103.1999988 0          0          0          0         
N_29000          103.2299988 0          0          0          0         
N_29100          103.2599988 0          0          0          0         
N_29200          103.2899988 0          0          0          0         
N_29300          103.3199988 0          0          0          0         
N_29400          103.3499988 0          0          0          0         
N_29500          103.3799988 0          0          0          0         
N_29600          103.4099988 0          0          0          0         
N_29700          103.4399988 0          0          0          0         
N_29800          103.4699988 0          0          0          0         
N_29900          103.4999988 0          0          0          0         
N_30000          103.5299988 0          0          0          0         
N_30100          103.5599988 0          0          0          0         
N_30200          103.5899988 0          0          0          0         
N_30300          103.6199988 0          0          0          0         
N_30400          103.6499988 0          0          0          0         
N_30500          103.6799988 0          0          0          0         
N_30600          103.7099988 0          0          0          0         
N_30700          103.7399988 0          0          0          0         
N_30800          103.7699988 0          0          0          0         
N_30900          103.7999988 0          0          0          0         
N_31000          103.8299988 0          0          0          0         
N_31100          103.8599988 0          0          0          0         
N_31200          103.8899988 0          0          0          0         
N_31300          103.9199988 0          0          0          0         
N_31400          103.9499988 0          0          0          0         
N_31500          103.9799988 0          0          0          0         
N_31600          104.0099988 0          0          0          0         
N_31700          104.0399988 0          0          0          0         
N_31800          104.0699988 0          0          0          0         
N_31900          104.0999988 0          0          0          0         
N_32000          104.1299988 0          0          0          0         
N_32100          104.1599988 0          0          0          0         
N_32200          104.1899988 0          0          0          0         
N_32300          104.2199988 0          0          0          0         
N_32400          104.2499988 0          0          0          0         
N_32500          104.2799988 0          0          0          0         
N_32600          104.3099988 0          0          0          0         
N_32700          104.3399988 0          0          0          0         
N_32800          104.3699988 0          0          0          0         
N_32900          104.3999988 0          0          0          0         
N_33000          104.4299988 0          0          0          0         
N_33100          104.4599988 0          0          0          0         
N_33200          104.4899988 0          0          0          0         
N_33300          104.5199988 0          0          0          0         
N_33400          104.5499988 0          0          0          0         
N_33500          104.5799988 0          0          0          0         
N_33600          104.6099988 0          0          0          0         
N_33700          104.6399988 0          0          0          0         
N_33800          104.6699988 0          0          0          0         
N_33900          104.6999988 0          0          0          0         
N_34000          104.7299988 0          0          0          0         
N_34100          104.7599988 0          0          0          0         
N_34200          104.7899988 0          0          0          0         
N_34300          104.8199988 0          0          0          0         
N_34400          104.8499988 0          0          0          0         
N_34500          104.8799988 0          0          0          0         
N_34600          104.9099988 0          0          0          0         
N_34700          104.9399988 0          0          0          0         
N_34800          104.9699988 0          0          0          0         
N_34900          104.9999988 0          0          0          0         
N_35000          105.0299988 0          0          0          0         
N_35100          105.0599988 0          0          0          0         
N_35200          105.0899988 0          0          0          0         
N_35300          105.1199988 0          0          0          0         
N_35400          105.1499988 0          0          0          0         
N_35500          105.1799988 0          0          0          0         
N_35600          105.2099988 0          0          0          0         
N_35700          105.2399988 0          0          0          0         
N_35800          105.2699988 0          0          0          0         
N_35900          105.2999988 0          0          0          0         
N_36000          105.3299988 0          0          0          0         
N_36100          105.3599988 0          0          0          0         
N_36200          105.3899988 0          0          0          0         
N_36300          105.4199988 0          0          0          0         
N_36400          105.4499988 0          0          0          0         
N_36500          105.4799988 0          0          0          0         
N_36600          105.5099988 0          0          0          0         
N_36700          105.5399988 0          0          0          0         
N_36800          105.5699988 0          0          0          0         
N_36900          105.5999988 0          0          0          0         
N_37000          105.6299988 0          0          0          0         
N_37100          105.6599988 0          0          0          0         
N_37200          105.6899988 0          0          0          0         
N_37300          105.7199988 0          0          0          0         
N_37400          105.7499988 0          0          0          0         
N_37500          105.7799988 0          0          0          0         
N_37600          105.8099988 0          0          0          0         
N_TROLLGG        105.8399988 0          0          0          0         
N_37800          105.8699988 0          0          0          0         
N_37900          105.8999988 0          0          0          0         
N_38000          105.9299988 0          0          0          0         
N_38100          105.9599988 0          0          0          0         
N_38200          105.9899988 0          0          0          0         
N_38300          106.0199988 0          0          0          0         
N_38400          106.0499988 0          0          0          0         
N_38500          106.0799988 0          0          0          0         
N_38600          106.1099988 0          0          0          0         
N_38700          106.1399988 0          0          0          0         